 15

C   -1.493899  -0.995578   0.476934
C   -1.539790   0.174230  -0.467760
H   -1.739038  -1.994718   0.136226
H   -1.566409  -0.822819   1.545872
C   -0.040678   0.499274  -0.469603
H   -2.160731   1.003997  -0.111559
H   -1.890361  -0.127856  -1.457509
O    0.406210  -0.760260   0.081381
C    0.353764   1.668783   0.413059
H    0.384437   0.614151  -1.471513
O    2.049329  -0.700349  -0.201012
H   -0.004193   2.610337  -0.018306
H   -0.079527   1.559872   1.414202
H    1.441455   1.713173   0.502117
H    2.293673  -0.951514   0.701730